L6/1726529/Cargas.dss
! ==========================================================
! CARGAS — mes 01
! BT: UCBT_tab agregada por transformador (kW = ENE/730 h)
! MT: UCMT_tab individual no PAC do consumidor
! fator de escala aplicado: 1
! 0 cargas de MT descartadas por PAC ausente da rede.
! ==========================================================
New Load.BT_325048994_325839886_1 Bus1=node_412302137.1.4 Phases=1 Model=8 zipv=(0.5,0,0.5,1,0,0,0) kv=0.1200 pf=0.92 kW=0.073288 Daily=RES1_25
New Load.BT_325048994_325839886_2 Bus1=node_412302137.2.4 Phases=1 Model=8 zipv=(0.5,0,0.5,1,0,0,0) kv=0.1200 pf=0.92 kW=0.073288 Daily=RES1_25
New Load.BT_325049929_325812698_1 Bus1=node_1678657849.1.4 Phases=1 Model=8 zipv=(0.5,0,0.5,1,0,0,0) kv=0.1200 pf=0.92 kW=3.226712 Daily=RES1_25
New Load.BT_325049929_325812698_2 Bus1=node_1678657849.2.4 Phases=1 Model=8 zipv=(0.5,0,0.5,1,0,0,0) kv=0.1200 pf=0.92 kW=3.226712 Daily=RES1_25
New Load.BT_324762566_325837597_1 Bus1=node_418581011.1.4 Phases=1 Model=8 zipv=(0.5,0,0.5,1,0,0,0) kv=0.1270 pf=0.92 kW=3.908219 Daily=RES1_25
New Load.BT_324762566_325837597_2 Bus1=node_418581011.2.4 Phases=1 Model=8 zipv=(0.5,0,0.5,1,0,0,0) kv=0.1270 pf=0.92 kW=3.908219 Daily=RES1_25
New Load.BT_324762566_325837597_3 Bus1=node_418581011.3.4 Phases=1 Model=8 zipv=(0.5,0,0.5,1,0,0,0) kv=0.1270 pf=0.92 kW=3.908219 Daily=RES1_25
New Load.BT_325174468_325838071_1 Bus1=node_409199179.1.4 Phases=1 Model=8 zipv=(0.5,0,0.5,1,0,0,0) kv=0.1270 pf=0.92 kW=5.861187 Daily=RES1_25
New Load.BT_325174468_325838071_2 Bus1=node_409199179.2.4 Phases=1 Model=8 zipv=(0.5,0,0.5,1,0,0,0) kv=0.1270 pf=0.92 kW=5.861187 Daily=RES1_25
New Load.BT_325174468_325838071_3 Bus1=node_409199179.3.4 Phases=1 Model=8 zipv=(0.5,0,0.5,1,0,0,0) kv=0.1270 pf=0.92 kW=5.861187 Daily=RES1_25
New Load.BT_325174141_325776741_1 Bus1=node_411469999.1.4 Phases=1 Model=8 zipv=(0.5,0,0.5,1,0,0,0) kv=0.1270 pf=0.92 kW=11.276712 Daily=RES1_25
New Load.BT_325174141_325776741_2 Bus1=node_411469999.2.4 Phases=1 Model=8 zipv=(0.5,0,0.5,1,0,0,0) kv=0.1270 pf=0.92 kW=11.276712 Daily=RES1_25
New Load.BT_325174141_325776741_3 Bus1=node_411469999.3.4 Phases=1 Model=8 zipv=(0.5,0,0.5,1,0,0,0) kv=0.1270 pf=0.92 kW=11.276712 Daily=RES1_25
New Load.BT_325174987_325860081_1 Bus1=node_411468484.1.4 Phases=1 Model=8 zipv=(0.5,0,0.5,1,0,0,0) kv=0.1270 pf=0.92 kW=9.915525 Daily=RES1_25
New Load.BT_325174987_325860081_2 Bus1=node_411468484.2.4 Phases=1 Model=8 zipv=(0.5,0,0.5,1,0,0,0) kv=0.1270 pf=0.92 kW=9.915525 Daily=RES1_25
New Load.BT_325174987_325860081_3 Bus1=node_411468484.3.4 Phases=1 Model=8 zipv=(0.5,0,0.5,1,0,0,0) kv=0.1270 pf=0.92 kW=9.915525 Daily=RES1_25
New Load.BT_325175487_325812425_1 Bus1=node_411468955.1.4 Phases=1 Model=8 zipv=(0.5,0,0.5,1,0,0,0) kv=0.1270 pf=0.92 kW=12.460731 Daily=COM1_26
New Load.BT_325175487_325812425_2 Bus1=node_411468955.2.4 Phases=1 Model=8 zipv=(0.5,0,0.5,1,0,0,0) kv=0.1270 pf=0.92 kW=12.460731 Daily=COM1_26
New Load.BT_325175487_325812425_3 Bus1=node_411468955.3.4 Phases=1 Model=8 zipv=(0.5,0,0.5,1,0,0,0) kv=0.1270 pf=0.92 kW=12.460731 Daily=COM1_26
New Load.BT_325171852_2240205564_1 Bus1=node_408469687.1.4 Phases=1 Model=8 zipv=(0.5,0,0.5,1,0,0,0) kv=0.1270 pf=0.92 kW=4.800457 Daily=RES1_25
New Load.BT_325171852_2240205564_2 Bus1=node_408469687.2.4 Phases=1 Model=8 zipv=(0.5,0,0.5,1,0,0,0) kv=0.1270 pf=0.92 kW=4.800457 Daily=RES1_25
New Load.BT_325171852_2240205564_3 Bus1=node_408469687.3.4 Phases=1 Model=8 zipv=(0.5,0,0.5,1,0,0,0) kv=0.1270 pf=0.92 kW=4.800457 Daily=RES1_25
New Load.BT_325047238_325744410_1 Bus1=node_411441295.1.4 Phases=1 Model=8 zipv=(0.5,0,0.5,1,0,0,0) kv=0.1270 pf=0.92 kW=5.048858 Daily=RES1_25
New Load.BT_325047238_325744410_2 Bus1=node_411441295.2.4 Phases=1 Model=8 zipv=(0.5,0,0.5,1,0,0,0) kv=0.1270 pf=0.92 kW=5.048858 Daily=RES1_25
New Load.BT_325047238_325744410_3 Bus1=node_411441295.3.4 Phases=1 Model=8 zipv=(0.5,0,0.5,1,0,0,0) kv=0.1270 pf=0.92 kW=5.048858 Daily=RES1_25
New Load.BT_325174294_325402529_1 Bus1=node_411468631.1.4 Phases=1 Model=8 zipv=(0.5,0,0.5,1,0,0,0) kv=0.1270 pf=0.92 kW=10.957078 Daily=RES1_25
New Load.BT_325174294_325402529_2 Bus1=node_411468631.2.4 Phases=1 Model=8 zipv=(0.5,0,0.5,1,0,0,0) kv=0.1270 pf=0.92 kW=10.957078 Daily=RES1_25
New Load.BT_325174294_325402529_3 Bus1=node_411468631.3.4 Phases=1 Model=8 zipv=(0.5,0,0.5,1,0,0,0) kv=0.1270 pf=0.92 kW=10.957078 Daily=RES1_25
New Load.BT_325175154_325837577_1 Bus1=node_414365944.1.4 Phases=1 Model=8 zipv=(0.5,0,0.5,1,0,0,0) kv=0.1270 pf=0.92 kW=9.686758 Daily=RES1_25
New Load.BT_325175154_325837577_2 Bus1=node_414365944.2.4 Phases=1 Model=8 zipv=(0.5,0,0.5,1,0,0,0) kv=0.1270 pf=0.92 kW=9.686758 Daily=RES1_25
New Load.BT_325175154_325837577_3 Bus1=node_414365944.3.4 Phases=1 Model=8 zipv=(0.5,0,0.5,1,0,0,0) kv=0.1270 pf=0.92 kW=9.686758 Daily=RES1_25
New Load.BT_324762342_325773658_1 Bus1=node_422786434.1.4 Phases=1 Model=8 zipv=(0.5,0,0.5,1,0,0,0) kv=0.1270 pf=0.92 kW=9.307763 Daily=RES1_25
New Load.BT_324762342_325773658_2 Bus1=node_422786434.2.4 Phases=1 Model=8 zipv=(0.5,0,0.5,1,0,0,0) kv=0.1270 pf=0.92 kW=9.307763 Daily=RES1_25
New Load.BT_324762342_325773658_3 Bus1=node_422786434.3.4 Phases=1 Model=8 zipv=(0.5,0,0.5,1,0,0,0) kv=0.1270 pf=0.92 kW=9.307763 Daily=RES1_25
New Load.BT_325400910_325813100_1 Bus1=node_409161470.1.4 Phases=1 Model=8 zipv=(0.5,0,0.5,1,0,0,0) kv=0.1270 pf=0.92 kW=6.784018 Daily=COM1_26
New Load.BT_325400910_325813100_2 Bus1=node_409161470.2.4 Phases=1 Model=8 zipv=(0.5,0,0.5,1,0,0,0) kv=0.1270 pf=0.92 kW=6.784018 Daily=COM1_26
New Load.BT_325400910_325813100_3 Bus1=node_409161470.3.4 Phases=1 Model=8 zipv=(0.5,0,0.5,1,0,0,0) kv=0.1270 pf=0.92 kW=6.784018 Daily=COM1_26
New Load.BT_2069776834_2069776833_1 Bus1=node_983489265.1.4 Phases=1 Model=8 zipv=(0.5,0,0.5,1,0,0,0) kv=0.1270 pf=0.92 kW=4.943836 Daily=RES1_25
New Load.BT_2069776834_2069776833_2 Bus1=node_983489265.2.4 Phases=1 Model=8 zipv=(0.5,0,0.5,1,0,0,0) kv=0.1270 pf=0.92 kW=4.943836 Daily=RES1_25
New Load.BT_2069776834_2069776833_3 Bus1=node_983489265.3.4 Phases=1 Model=8 zipv=(0.5,0,0.5,1,0,0,0) kv=0.1270 pf=0.92 kW=4.943836 Daily=RES1_25
New Load.BT_1063155920_1063155921_1 Bus1=node_460530215.1.4 Phases=1 Model=8 zipv=(0.5,0,0.5,1,0,0,0) kv=0.1270 pf=0.92 kW=3.641553 Daily=RES1_25
New Load.BT_1063155920_1063155921_2 Bus1=node_460530215.2.4 Phases=1 Model=8 zipv=(0.5,0,0.5,1,0,0,0) kv=0.1270 pf=0.92 kW=3.641553 Daily=RES1_25
New Load.BT_1063155920_1063155921_3 Bus1=node_460530215.3.4 Phases=1 Model=8 zipv=(0.5,0,0.5,1,0,0,0) kv=0.1270 pf=0.92 kW=3.641553 Daily=RES1_25
New Load.BT_325399466_325777084_1 Bus1=node_412060759.1.4 Phases=1 Model=8 zipv=(0.5,0,0.5,1,0,0,0) kv=0.1200 pf=0.92 kW=0.167808 Daily=RES1_25
New Load.BT_325399466_325777084_2 Bus1=node_412060759.2.4 Phases=1 Model=8 zipv=(0.5,0,0.5,1,0,0,0) kv=0.1200 pf=0.92 kW=0.167808 Daily=RES1_25
New Load.BT_324923226_325773725_1 Bus1=node_411470026.1.4 Phases=1 Model=8 zipv=(0.5,0,0.5,1,0,0,0) kv=0.1270 pf=0.92 kW=5.409132 Daily=RES1_25
New Load.BT_324923226_325773725_2 Bus1=node_411470026.2.4 Phases=1 Model=8 zipv=(0.5,0,0.5,1,0,0,0) kv=0.1270 pf=0.92 kW=5.409132 Daily=RES1_25
New Load.BT_324923226_325773725_3 Bus1=node_411470026.3.4 Phases=1 Model=8 zipv=(0.5,0,0.5,1,0,0,0) kv=0.1270 pf=0.92 kW=5.409132 Daily=RES1_25
New Load.BT_325050256_325776600_1 Bus1=node_408469675.1.4 Phases=1 Model=8 zipv=(0.5,0,0.5,1,0,0,0) kv=0.1270 pf=0.92 kW=3.556621 Daily=RES1_25
New Load.BT_325050256_325776600_2 Bus1=node_408469675.2.4 Phases=1 Model=8 zipv=(0.5,0,0.5,1,0,0,0) kv=0.1270 pf=0.92 kW=3.556621 Daily=RES1_25
New Load.BT_325050256_325776600_3 Bus1=node_408469675.3.4 Phases=1 Model=8 zipv=(0.5,0,0.5,1,0,0,0) kv=0.1270 pf=0.92 kW=3.556621 Daily=RES1_25
New Load.BT_325172981_325839966_1 Bus1=node_411468427.1.4 Phases=1 Model=8 zipv=(0.5,0,0.5,1,0,0,0) kv=0.1270 pf=0.92 kW=8.265297 Daily=RES1_25
New Load.BT_325172981_325839966_2 Bus1=node_411468427.2.4 Phases=1 Model=8 zipv=(0.5,0,0.5,1,0,0,0) kv=0.1270 pf=0.92 kW=8.265297 Daily=RES1_25
New Load.BT_325172981_325839966_3 Bus1=node_411468427.3.4 Phases=1 Model=8 zipv=(0.5,0,0.5,1,0,0,0) kv=0.1270 pf=0.92 kW=8.265297 Daily=RES1_25
New Load.BT_324763084_325776736_1 Bus1=node_411442114.1.4 Phases=1 Model=8 zipv=(0.5,0,0.5,1,0,0,0) kv=0.1270 pf=0.92 kW=11.464384 Daily=RES1_25
New Load.BT_324763084_325776736_2 Bus1=node_411442114.2.4 Phases=1 Model=8 zipv=(0.5,0,0.5,1,0,0,0) kv=0.1270 pf=0.92 kW=11.464384 Daily=RES1_25
New Load.BT_324763084_325776736_3 Bus1=node_411442114.3.4 Phases=1 Model=8 zipv=(0.5,0,0.5,1,0,0,0) kv=0.1270 pf=0.92 kW=11.464384 Daily=RES1_25
New Load.BT_324923359_325745048_1 Bus1=node_420396907.1.4 Phases=1 Model=8 zipv=(0.5,0,0.5,1,0,0,0) kv=0.1200 pf=0.92 kW=0.698630 Daily=RES1_25
New Load.BT_324923359_325745048_2 Bus1=node_420396907.2.4 Phases=1 Model=8 zipv=(0.5,0,0.5,1,0,0,0) kv=0.1200 pf=0.92 kW=0.698630 Daily=RES1_25
New Load.BT_325399919_325402924_1 Bus1=node_422999909.1.4 Phases=1 Model=8 zipv=(0.5,0,0.5,1,0,0,0) kv=0.1270 pf=0.92 kW=1.104566 Daily=RES1_25
New Load.BT_325399919_325402924_2 Bus1=node_422999909.2.4 Phases=1 Model=8 zipv=(0.5,0,0.5,1,0,0,0) kv=0.1270 pf=0.92 kW=1.104566 Daily=RES1_25
New Load.BT_325399919_325402924_3 Bus1=node_422999909.3.4 Phases=1 Model=8 zipv=(0.5,0,0.5,1,0,0,0) kv=0.1270 pf=0.92 kW=1.104566 Daily=RES1_25
New Load.BT_324760628_325837729_1 Bus1=node_411468457.1.4 Phases=1 Model=8 zipv=(0.5,0,0.5,1,0,0,0) kv=0.1270 pf=0.92 kW=15.106849 Daily=RES1_25
New Load.BT_324760628_325837729_2 Bus1=node_411468457.2.4 Phases=1 Model=8 zipv=(0.5,0,0.5,1,0,0,0) kv=0.1270 pf=0.92 kW=15.106849 Daily=RES1_25
New Load.BT_324760628_325837729_3 Bus1=node_411468457.3.4 Phases=1 Model=8 zipv=(0.5,0,0.5,1,0,0,0) kv=0.1270 pf=0.92 kW=15.106849 Daily=RES1_25
New Load.BT_324925672_325402531_1 Bus1=node_411441667.1.4 Phases=1 Model=8 zipv=(0.5,0,0.5,1,0,0,0) kv=0.1270 pf=0.92 kW=7.271689 Daily=RES1_25
New Load.BT_324925672_325402531_2 Bus1=node_411441667.2.4 Phases=1 Model=8 zipv=(0.5,0,0.5,1,0,0,0) kv=0.1270 pf=0.92 kW=7.271689 Daily=RES1_25
New Load.BT_324925672_325402531_3 Bus1=node_411441667.3.4 Phases=1 Model=8 zipv=(0.5,0,0.5,1,0,0,0) kv=0.1270 pf=0.92 kW=7.271689 Daily=RES1_25
New Load.BT_325401108_325776703_1 Bus1=node_408536164.1.4 Phases=1 Model=8 zipv=(0.5,0,0.5,1,0,0,0) kv=0.1200 pf=0.92 kW=0.215068 Daily=RES1_25
New Load.BT_325401108_325776703_2 Bus1=node_408536164.2.4 Phases=1 Model=8 zipv=(0.5,0,0.5,1,0,0,0) kv=0.1200 pf=0.92 kW=0.215068 Daily=RES1_25
New Load.BT_325171827_325839143_1 Bus1=node_411441301.1.4 Phases=1 Model=8 zipv=(0.5,0,0.5,1,0,0,0) kv=0.1270 pf=0.92 kW=15.578082 Daily=COM1_26
New Load.BT_325171827_325839143_2 Bus1=node_411441301.2.4 Phases=1 Model=8 zipv=(0.5,0,0.5,1,0,0,0) kv=0.1270 pf=0.92 kW=15.578082 Daily=COM1_26
New Load.BT_325171827_325839143_3 Bus1=node_411441301.3.4 Phases=1 Model=8 zipv=(0.5,0,0.5,1,0,0,0) kv=0.1270 pf=0.92 kW=15.578082 Daily=COM1_26
New Load.BT_325399797_325776825_1 Bus1=node_411468979.1.4 Phases=1 Model=8 zipv=(0.5,0,0.5,1,0,0,0) kv=0.1200 pf=0.92 kW=0.037671 Daily=RES1_25
New Load.BT_325399797_325776825_2 Bus1=node_411468979.2.4 Phases=1 Model=8 zipv=(0.5,0,0.5,1,0,0,0) kv=0.1200 pf=0.92 kW=0.037671 Daily=RES1_25
New Load.BT_325172793_325837580_1 Bus1=node_409161047.1.4 Phases=1 Model=8 zipv=(0.5,0,0.5,1,0,0,0) kv=0.1270 pf=0.92 kW=4.949772 Daily=RES1_25
New Load.BT_325172793_325837580_2 Bus1=node_409161047.2.4 Phases=1 Model=8 zipv=(0.5,0,0.5,1,0,0,0) kv=0.1270 pf=0.92 kW=4.949772 Daily=RES1_25
New Load.BT_325172793_325837580_3 Bus1=node_409161047.3.4 Phases=1 Model=8 zipv=(0.5,0,0.5,1,0,0,0) kv=0.1270 pf=0.92 kW=4.949772 Daily=RES1_25
New Load.BT_324759863_325402811_1 Bus1=node_411818463.1.4 Phases=1 Model=8 zipv=(0.5,0,0.5,1,0,0,0) kv=0.1200 pf=0.92 kW=0.131507 Daily=RES1_25
New Load.BT_324759863_325402811_2 Bus1=node_411818463.2.4 Phases=1 Model=8 zipv=(0.5,0,0.5,1,0,0,0) kv=0.1200 pf=0.92 kW=0.131507 Daily=RES1_25
New Load.BT_325172668_1565892996_1 Bus1=node_422787724.1.4 Phases=1 Model=8 zipv=(0.5,0,0.5,1,0,0,0) kv=0.1270 pf=0.92 kW=6.829680 Daily=RES1_25
New Load.BT_325172668_1565892996_2 Bus1=node_422787724.2.4 Phases=1 Model=8 zipv=(0.5,0,0.5,1,0,0,0) kv=0.1270 pf=0.92 kW=6.829680 Daily=RES1_25
New Load.BT_325172668_1565892996_3 Bus1=node_422787724.3.4 Phases=1 Model=8 zipv=(0.5,0,0.5,1,0,0,0) kv=0.1270 pf=0.92 kW=6.829680 Daily=RES1_25
New Load.BT_325050336_325773754_1 Bus1=node_414312699.1.4 Phases=1 Model=8 zipv=(0.5,0,0.5,1,0,0,0) kv=0.1270 pf=0.92 kW=3.581279 Daily=RES1_25
New Load.BT_325050336_325773754_2 Bus1=node_414312699.2.4 Phases=1 Model=8 zipv=(0.5,0,0.5,1,0,0,0) kv=0.1270 pf=0.92 kW=3.581279 Daily=RES1_25
New Load.BT_325050336_325773754_3 Bus1=node_414312699.3.4 Phases=1 Model=8 zipv=(0.5,0,0.5,1,0,0,0) kv=0.1270 pf=0.92 kW=3.581279 Daily=RES1_25
New Load.BT_324761116_325839860_1 Bus1=node_422788042.1.4 Phases=1 Model=8 zipv=(0.5,0,0.5,1,0,0,0) kv=0.1270 pf=0.92 kW=7.836073 Daily=RES1_25
New Load.BT_324761116_325839860_2 Bus1=node_422788042.2.4 Phases=1 Model=8 zipv=(0.5,0,0.5,1,0,0,0) kv=0.1270 pf=0.92 kW=7.836073 Daily=RES1_25
New Load.BT_324761116_325839860_3 Bus1=node_422788042.3.4 Phases=1 Model=8 zipv=(0.5,0,0.5,1,0,0,0) kv=0.1270 pf=0.92 kW=7.836073 Daily=RES1_25
New Load.BT_325175144_325812289_1 Bus1=node_418580870.1.4 Phases=1 Model=8 zipv=(0.5,0,0.5,1,0,0,0) kv=0.1270 pf=0.92 kW=8.121461 Daily=RES1_25
New Load.BT_325175144_325812289_2 Bus1=node_418580870.2.4 Phases=1 Model=8 zipv=(0.5,0,0.5,1,0,0,0) kv=0.1270 pf=0.92 kW=8.121461 Daily=RES1_25
New Load.BT_325175144_325812289_3 Bus1=node_418580870.3.4 Phases=1 Model=8 zipv=(0.5,0,0.5,1,0,0,0) kv=0.1270 pf=0.92 kW=8.121461 Daily=RES1_25
New Load.BT_325401403_325812534_1 Bus1=node_411505715.1.4 Phases=1 Model=8 zipv=(0.5,0,0.5,1,0,0,0) kv=0.1200 pf=0.92 kW=0.154110 Daily=RES1_25
New Load.BT_325401403_325812534_2 Bus1=node_411505715.2.4 Phases=1 Model=8 zipv=(0.5,0,0.5,1,0,0,0) kv=0.1200 pf=0.92 kW=0.154110 Daily=RES1_25
New Load.BT_324761352_325837584_1 Bus1=node_408469390.1.4 Phases=1 Model=8 zipv=(0.5,0,0.5,1,0,0,0) kv=0.1270 pf=0.92 kW=5.730137 Daily=RES1_25
New Load.BT_324761352_325837584_2 Bus1=node_408469390.2.4 Phases=1 Model=8 zipv=(0.5,0,0.5,1,0,0,0) kv=0.1270 pf=0.92 kW=5.730137 Daily=RES1_25
New Load.BT_324761352_325837584_3 Bus1=node_408469390.3.4 Phases=1 Model=8 zipv=(0.5,0,0.5,1,0,0,0) kv=0.1270 pf=0.92 kW=5.730137 Daily=RES1_25
New Load.BT_324762997_1604822392_1 Bus1=node_411468412.1.4 Phases=1 Model=8 zipv=(0.5,0,0.5,1,0,0,0) kv=0.1270 pf=0.92 kW=2.921918 Daily=RES1_25
New Load.BT_324762997_1604822392_2 Bus1=node_411468412.2.4 Phases=1 Model=8 zipv=(0.5,0,0.5,1,0,0,0) kv=0.1270 pf=0.92 kW=2.921918 Daily=RES1_25
New Load.BT_324762997_1604822392_3 Bus1=node_411468412.3.4 Phases=1 Model=8 zipv=(0.5,0,0.5,1,0,0,0) kv=0.1270 pf=0.92 kW=2.921918 Daily=RES1_25
New Load.BT_325400626_325860082_1 Bus1=node_411468409.1.4 Phases=1 Model=8 zipv=(0.5,0,0.5,1,0,0,0) kv=0.1270 pf=0.92 kW=5.953881 Daily=RES1_25
New Load.BT_325400626_325860082_2 Bus1=node_411468409.2.4 Phases=1 Model=8 zipv=(0.5,0,0.5,1,0,0,0) kv=0.1270 pf=0.92 kW=5.953881 Daily=RES1_25
New Load.BT_325400626_325860082_3 Bus1=node_411468409.3.4 Phases=1 Model=8 zipv=(0.5,0,0.5,1,0,0,0) kv=0.1270 pf=0.92 kW=5.953881 Daily=RES1_25
New Load.BT_325399866_325402530_1 Bus1=node_411442243.1.4 Phases=1 Model=8 zipv=(0.5,0,0.5,1,0,0,0) kv=0.1270 pf=0.92 kW=7.395890 Daily=RES1_25
New Load.BT_325399866_325402530_2 Bus1=node_411442243.2.4 Phases=1 Model=8 zipv=(0.5,0,0.5,1,0,0,0) kv=0.1270 pf=0.92 kW=7.395890 Daily=RES1_25
New Load.BT_325399866_325402530_3 Bus1=node_411442243.3.4 Phases=1 Model=8 zipv=(0.5,0,0.5,1,0,0,0) kv=0.1270 pf=0.92 kW=7.395890 Daily=RES1_25
New Load.BT_324760850_325813102_1 Bus1=node_415854744.1.4 Phases=1 Model=8 zipv=(0.5,0,0.5,1,0,0,0) kv=0.1200 pf=0.92 kW=0.197945 Daily=RES1_25
New Load.BT_324760850_325813102_2 Bus1=node_415854744.2.4 Phases=1 Model=8 zipv=(0.5,0,0.5,1,0,0,0) kv=0.1200 pf=0.92 kW=0.197945 Daily=RES1_25
New Load.BT_325172176_325744501_1 Bus1=node_418985180.1.4 Phases=1 Model=8 zipv=(0.5,0,0.5,1,0,0,0) kv=0.1200 pf=0.92 kW=3.702055 Daily=RES1_25
New Load.BT_325172176_325744501_2 Bus1=node_418985180.2.4 Phases=1 Model=8 zipv=(0.5,0,0.5,1,0,0,0) kv=0.1200 pf=0.92 kW=3.702055 Daily=RES1_25
New Load.BT_325175224_325813156_1 Bus1=node_419757259.1.4 Phases=1 Model=8 zipv=(0.5,0,0.5,1,0,0,0) kv=0.1200 pf=0.92 kW=0.244521 Daily=RES1_25
New Load.BT_325175224_325813156_2 Bus1=node_419757259.2.4 Phases=1 Model=8 zipv=(0.5,0,0.5,1,0,0,0) kv=0.1200 pf=0.92 kW=0.244521 Daily=RES1_25
New Load.BT_324762956_325744824_1 Bus1=node_412115265.1.4 Phases=1 Model=8 zipv=(0.5,0,0.5,1,0,0,0) kv=0.1200 pf=0.92 kW=0.393151 Daily=RES1_25
New Load.BT_324762956_325744824_2 Bus1=node_412115265.2.4 Phases=1 Model=8 zipv=(0.5,0,0.5,1,0,0,0) kv=0.1200 pf=0.92 kW=0.393151 Daily=RES1_25
New Load.BT_325400720_325860083_1 Bus1=node_411442255.1.4 Phases=1 Model=8 zipv=(0.5,0,0.5,1,0,0,0) kv=0.1270 pf=0.92 kW=9.495890 Daily=RES1_25
New Load.BT_325400720_325860083_2 Bus1=node_411442255.2.4 Phases=1 Model=8 zipv=(0.5,0,0.5,1,0,0,0) kv=0.1270 pf=0.92 kW=9.495890 Daily=RES1_25
New Load.BT_325400720_325860083_3 Bus1=node_411442255.3.4 Phases=1 Model=8 zipv=(0.5,0,0.5,1,0,0,0) kv=0.1270 pf=0.92 kW=9.495890 Daily=RES1_25
New Load.BT_324923415_325837720_1 Bus1=node_411441322.1.4 Phases=1 Model=8 zipv=(0.5,0,0.5,1,0,0,0) kv=0.1270 pf=0.92 kW=3.469406 Daily=RES1_25
New Load.BT_324923415_325837720_2 Bus1=node_411441322.2.4 Phases=1 Model=8 zipv=(0.5,0,0.5,1,0,0,0) kv=0.1270 pf=0.92 kW=3.469406 Daily=RES1_25
New Load.BT_324923415_325837720_3 Bus1=node_411441322.3.4 Phases=1 Model=8 zipv=(0.5,0,0.5,1,0,0,0) kv=0.1270 pf=0.92 kW=3.469406 Daily=RES1_25
New Load.BT_325172033_325747071_1 Bus1=node_411441292.1.4 Phases=1 Model=8 zipv=(0.5,0,0.5,1,0,0,0) kv=0.1270 pf=0.92 kW=4.869406 Daily=RES1_25
New Load.BT_325172033_325747071_2 Bus1=node_411441292.2.4 Phases=1 Model=8 zipv=(0.5,0,0.5,1,0,0,0) kv=0.1270 pf=0.92 kW=4.869406 Daily=RES1_25
New Load.BT_325172033_325747071_3 Bus1=node_411441292.3.4 Phases=1 Model=8 zipv=(0.5,0,0.5,1,0,0,0) kv=0.1270 pf=0.92 kW=4.869406 Daily=RES1_25
New Load.BT_325400200_2512586869_1 Bus1=node_412148004.1.4 Phases=1 Model=8 zipv=(0.5,0,0.5,1,0,0,0) kv=0.1200 pf=0.92 kW=0.086986 Daily=RES1_25
New Load.BT_325400200_2512586869_2 Bus1=node_412148004.2.4 Phases=1 Model=8 zipv=(0.5,0,0.5,1,0,0,0) kv=0.1200 pf=0.92 kW=0.086986 Daily=RES1_25
New Load.BT_324380978_325773079_1 Bus1=node_409042299.1.4 Phases=1 Model=8 zipv=(0.5,0,0.5,1,0,0,0) kv=0.1200 pf=0.92 kW=0.452055 Daily=RES1_25
New Load.BT_324380978_325773079_2 Bus1=node_409042299.2.4 Phases=1 Model=8 zipv=(0.5,0,0.5,1,0,0,0) kv=0.1200 pf=0.92 kW=0.452055 Daily=RES1_25
New Load.BT_325401337_325745215_1 Bus1=node_412255115.1.4 Phases=1 Model=8 zipv=(0.5,0,0.5,1,0,0,0) kv=0.1270 pf=0.92 kW=1.731050 Daily=RES1_25
New Load.BT_325401337_325745215_2 Bus1=node_412255115.2.4 Phases=1 Model=8 zipv=(0.5,0,0.5,1,0,0,0) kv=0.1270 pf=0.92 kW=1.731050 Daily=RES1_25
New Load.BT_325401337_325745215_3 Bus1=node_412255115.3.4 Phases=1 Model=8 zipv=(0.5,0,0.5,1,0,0,0) kv=0.1270 pf=0.92 kW=1.731050 Daily=RES1_25
New Load.BT_324760121_1350913870_1 Bus1=node_411468871.1.4 Phases=1 Model=8 zipv=(0.5,0,0.5,1,0,0,0) kv=0.1270 pf=0.92 kW=4.360274 Daily=RES1_25
New Load.BT_324760121_1350913870_2 Bus1=node_411468871.2.4 Phases=1 Model=8 zipv=(0.5,0,0.5,1,0,0,0) kv=0.1270 pf=0.92 kW=4.360274 Daily=RES1_25
New Load.BT_324760121_1350913870_3 Bus1=node_411468871.3.4 Phases=1 Model=8 zipv=(0.5,0,0.5,1,0,0,0) kv=0.1270 pf=0.92 kW=4.360274 Daily=RES1_25
New Load.BT_325172378_325812427_1 Bus1=node_411442231.1.4 Phases=1 Model=8 zipv=(0.5,0,0.5,1,0,0,0) kv=0.1270 pf=0.92 kW=7.396804 Daily=RES1_25
New Load.BT_325172378_325812427_2 Bus1=node_411442231.2.4 Phases=1 Model=8 zipv=(0.5,0,0.5,1,0,0,0) kv=0.1270 pf=0.92 kW=7.396804 Daily=RES1_25
New Load.BT_325172378_325812427_3 Bus1=node_411442231.3.4 Phases=1 Model=8 zipv=(0.5,0,0.5,1,0,0,0) kv=0.1270 pf=0.92 kW=7.396804 Daily=RES1_25
New Load.BT_324380880_325837730_1 Bus1=node_411442252.1.4 Phases=1 Model=8 zipv=(0.5,0,0.5,1,0,0,0) kv=0.1270 pf=0.92 kW=7.151142 Daily=RES1_25
New Load.BT_324380880_325837730_2 Bus1=node_411442252.2.4 Phases=1 Model=8 zipv=(0.5,0,0.5,1,0,0,0) kv=0.1270 pf=0.92 kW=7.151142 Daily=RES1_25
New Load.BT_324380880_325837730_3 Bus1=node_411442252.3.4 Phases=1 Model=8 zipv=(0.5,0,0.5,1,0,0,0) kv=0.1270 pf=0.92 kW=7.151142 Daily=RES1_25
New Load.BT_324924539_325402526_1 Bus1=node_411469012.1.4 Phases=1 Model=8 zipv=(0.5,0,0.5,1,0,0,0) kv=0.1270 pf=0.92 kW=4.040639 Daily=RES1_25
New Load.BT_324924539_325402526_2 Bus1=node_411469012.2.4 Phases=1 Model=8 zipv=(0.5,0,0.5,1,0,0,0) kv=0.1270 pf=0.92 kW=4.040639 Daily=RES1_25
New Load.BT_324924539_325402526_3 Bus1=node_411469012.3.4 Phases=1 Model=8 zipv=(0.5,0,0.5,1,0,0,0) kv=0.1270 pf=0.92 kW=4.040639 Daily=RES1_25
New Load.BT_324763135_325837598_1 Bus1=node_418580915.1.4 Phases=1 Model=8 zipv=(0.5,0,0.5,1,0,0,0) kv=0.1270 pf=0.92 kW=6.478082 Daily=RES1_25
New Load.BT_324763135_325837598_2 Bus1=node_418580915.2.4 Phases=1 Model=8 zipv=(0.5,0,0.5,1,0,0,0) kv=0.1270 pf=0.92 kW=6.478082 Daily=RES1_25
New Load.BT_324763135_325837598_3 Bus1=node_418580915.3.4 Phases=1 Model=8 zipv=(0.5,0,0.5,1,0,0,0) kv=0.1270 pf=0.92 kW=6.478082 Daily=RES1_25
New Load.BT_324924764_2187397959_1 Bus1=node_411468496.1.4 Phases=1 Model=8 zipv=(0.5,0,0.5,1,0,0,0) kv=0.1270 pf=0.92 kW=4.306393 Daily=RES1_25
New Load.BT_324924764_2187397959_2 Bus1=node_411468496.2.4 Phases=1 Model=8 zipv=(0.5,0,0.5,1,0,0,0) kv=0.1270 pf=0.92 kW=4.306393 Daily=RES1_25
New Load.BT_324924764_2187397959_3 Bus1=node_411468496.3.4 Phases=1 Model=8 zipv=(0.5,0,0.5,1,0,0,0) kv=0.1270 pf=0.92 kW=4.306393 Daily=RES1_25
New Load.BT_324924775_325813218_1 Bus1=node_411468460.1.4 Phases=1 Model=8 zipv=(0.5,0,0.5,1,0,0,0) kv=0.1270 pf=0.92 kW=7.025114 Daily=RES1_25
New Load.BT_324924775_325813218_2 Bus1=node_411468460.2.4 Phases=1 Model=8 zipv=(0.5,0,0.5,1,0,0,0) kv=0.1270 pf=0.92 kW=7.025114 Daily=RES1_25
New Load.BT_324924775_325813218_3 Bus1=node_411468460.3.4 Phases=1 Model=8 zipv=(0.5,0,0.5,1,0,0,0) kv=0.1270 pf=0.92 kW=7.025114 Daily=RES1_25
New Load.BT_324761907_325402801_1 Bus1=node_422849416.1.4 Phases=1 Model=8 zipv=(0.5,0,0.5,1,0,0,0) kv=0.1270 pf=0.92 kW=3.556164 Daily=RES1_25
New Load.BT_324761907_325402801_2 Bus1=node_422849416.2.4 Phases=1 Model=8 zipv=(0.5,0,0.5,1,0,0,0) kv=0.1270 pf=0.92 kW=3.556164 Daily=RES1_25
New Load.BT_324761907_325402801_3 Bus1=node_422849416.3.4 Phases=1 Model=8 zipv=(0.5,0,0.5,1,0,0,0) kv=0.1270 pf=0.92 kW=3.556164 Daily=RES1_25
New Load.BT_325173462_325812266_1 Bus1=node_408469690.1.4 Phases=1 Model=8 zipv=(0.5,0,0.5,1,0,0,0) kv=0.1270 pf=0.92 kW=8.405023 Daily=RES1_25
New Load.BT_325173462_325812266_2 Bus1=node_408469690.2.4 Phases=1 Model=8 zipv=(0.5,0,0.5,1,0,0,0) kv=0.1270 pf=0.92 kW=8.405023 Daily=RES1_25
New Load.BT_325173462_325812266_3 Bus1=node_408469690.3.4 Phases=1 Model=8 zipv=(0.5,0,0.5,1,0,0,0) kv=0.1270 pf=0.92 kW=8.405023 Daily=RES1_25
New Load.BT_324381613_325839025_1 Bus1=node_422788648.1.4 Phases=1 Model=8 zipv=(0.5,0,0.5,1,0,0,0) kv=0.1200 pf=0.92 kW=0.100685 Daily=RES1_25
New Load.BT_324381613_325839025_2 Bus1=node_422788648.2.4 Phases=1 Model=8 zipv=(0.5,0,0.5,1,0,0,0) kv=0.1200 pf=0.92 kW=0.100685 Daily=RES1_25
New Load.BT_325401307_325839750_1 Bus1=node_408469759.1.4 Phases=1 Model=8 zipv=(0.5,0,0.5,1,0,0,0) kv=0.1270 pf=0.92 kW=6.370776 Daily=RES1_25
New Load.BT_325401307_325839750_2 Bus1=node_408469759.2.4 Phases=1 Model=8 zipv=(0.5,0,0.5,1,0,0,0) kv=0.1270 pf=0.92 kW=6.370776 Daily=RES1_25
New Load.BT_325401307_325839750_3 Bus1=node_408469759.3.4 Phases=1 Model=8 zipv=(0.5,0,0.5,1,0,0,0) kv=0.1270 pf=0.92 kW=6.370776 Daily=RES1_25
New Load.BT_324925273_2646586194_1 Bus1=node_409161356.1.4 Phases=1 Model=8 zipv=(0.5,0,0.5,1,0,0,0) kv=0.1270 pf=0.92 kW=7.707763 Daily=RES1_25
New Load.BT_324925273_2646586194_2 Bus1=node_409161356.2.4 Phases=1 Model=8 zipv=(0.5,0,0.5,1,0,0,0) kv=0.1270 pf=0.92 kW=7.707763 Daily=RES1_25
New Load.BT_324925273_2646586194_3 Bus1=node_409161356.3.4 Phases=1 Model=8 zipv=(0.5,0,0.5,1,0,0,0) kv=0.1270 pf=0.92 kW=7.707763 Daily=RES1_25
New Load.BT_325173124_325402385_1 Bus1=node_418581128.1.4 Phases=1 Model=8 zipv=(0.5,0,0.5,1,0,0,0) kv=0.1270 pf=0.92 kW=7.001370 Daily=RES1_25
New Load.BT_325173124_325402385_2 Bus1=node_418581128.2.4 Phases=1 Model=8 zipv=(0.5,0,0.5,1,0,0,0) kv=0.1270 pf=0.92 kW=7.001370 Daily=RES1_25
New Load.BT_325173124_325402385_3 Bus1=node_418581128.3.4 Phases=1 Model=8 zipv=(0.5,0,0.5,1,0,0,0) kv=0.1270 pf=0.92 kW=7.001370 Daily=RES1_25
New Load.BT_324762465_2096395210_1 Bus1=node_408469765.1.4 Phases=1 Model=8 zipv=(0.5,0,0.5,1,0,0,0) kv=0.1200 pf=0.92 kW=5.610274 Daily=RES1_25
New Load.BT_324762465_2096395210_2 Bus1=node_408469765.2.4 Phases=1 Model=8 zipv=(0.5,0,0.5,1,0,0,0) kv=0.1200 pf=0.92 kW=5.610274 Daily=RES1_25
New Load.BT_803918482_803918481_1 Bus1=node_460631862.1.4 Phases=1 Model=8 zipv=(0.5,0,0.5,1,0,0,0) kv=0.1270 pf=0.92 kW=6.243379 Daily=RES1_25
New Load.BT_803918482_803918481_2 Bus1=node_460631862.2.4 Phases=1 Model=8 zipv=(0.5,0,0.5,1,0,0,0) kv=0.1270 pf=0.92 kW=6.243379 Daily=RES1_25
New Load.BT_803918482_803918481_3 Bus1=node_460631862.3.4 Phases=1 Model=8 zipv=(0.5,0,0.5,1,0,0,0) kv=0.1270 pf=0.92 kW=6.243379 Daily=RES1_25
New Load.BT_325172650_2508576342_1 Bus1=node_2792843395.1.4 Phases=1 Model=8 zipv=(0.5,0,0.5,1,0,0,0) kv=0.1200 pf=0.92 kW=0.260959 Daily=RES1_25
New Load.BT_325172650_2508576342_2 Bus1=node_2792843395.2.4 Phases=1 Model=8 zipv=(0.5,0,0.5,1,0,0,0) kv=0.1200 pf=0.92 kW=0.260959 Daily=RES1_25
New Load.BT_325047403_325838678_1 Bus1=node_410013896.1.4 Phases=1 Model=8 zipv=(0.5,0,0.5,1,0,0,0) kv=0.1200 pf=0.92 kW=0.150000 Daily=RES1_25
New Load.BT_325047403_325838678_2 Bus1=node_410013896.2.4 Phases=1 Model=8 zipv=(0.5,0,0.5,1,0,0,0) kv=0.1200 pf=0.92 kW=0.150000 Daily=RES1_25
New Load.BT_324926077_325837582_1 Bus1=node_408469402.1.4 Phases=1 Model=8 zipv=(0.5,0,0.5,1,0,0,0) kv=0.1270 pf=0.92 kW=6.469863 Daily=RES1_25
New Load.BT_324926077_325837582_2 Bus1=node_408469402.2.4 Phases=1 Model=8 zipv=(0.5,0,0.5,1,0,0,0) kv=0.1270 pf=0.92 kW=6.469863 Daily=RES1_25
New Load.BT_324926077_325837582_3 Bus1=node_408469402.3.4 Phases=1 Model=8 zipv=(0.5,0,0.5,1,0,0,0) kv=0.1270 pf=0.92 kW=6.469863 Daily=RES1_25
New Load.BT_325050820_325744412_1 Bus1=node_411441673.1.4 Phases=1 Model=8 zipv=(0.5,0,0.5,1,0,0,0) kv=0.1270 pf=0.92 kW=6.489954 Daily=RES1_25
New Load.BT_325050820_325744412_2 Bus1=node_411441673.2.4 Phases=1 Model=8 zipv=(0.5,0,0.5,1,0,0,0) kv=0.1270 pf=0.92 kW=6.489954 Daily=RES1_25
New Load.BT_325050820_325744412_3 Bus1=node_411441673.3.4 Phases=1 Model=8 zipv=(0.5,0,0.5,1,0,0,0) kv=0.1270 pf=0.92 kW=6.489954 Daily=RES1_25
New Load.BT_325171983_325744408_1 Bus1=node_411468964.1.4 Phases=1 Model=8 zipv=(0.5,0,0.5,1,0,0,0) kv=0.1270 pf=0.92 kW=4.547945 Daily=RES1_25
New Load.BT_325171983_325744408_2 Bus1=node_411468964.2.4 Phases=1 Model=8 zipv=(0.5,0,0.5,1,0,0,0) kv=0.1270 pf=0.92 kW=4.547945 Daily=RES1_25
New Load.BT_325171983_325744408_3 Bus1=node_411468964.3.4 Phases=1 Model=8 zipv=(0.5,0,0.5,1,0,0,0) kv=0.1270 pf=0.92 kW=4.547945 Daily=RES1_25
New Load.BT_324759822_325776739_1 Bus1=node_411442246.1.4 Phases=1 Model=8 zipv=(0.5,0,0.5,1,0,0,0) kv=0.1270 pf=0.92 kW=6.595434 Daily=RES1_25
New Load.BT_324759822_325776739_2 Bus1=node_411442246.2.4 Phases=1 Model=8 zipv=(0.5,0,0.5,1,0,0,0) kv=0.1270 pf=0.92 kW=6.595434 Daily=RES1_25
New Load.BT_324759822_325776739_3 Bus1=node_411442246.3.4 Phases=1 Model=8 zipv=(0.5,0,0.5,1,0,0,0) kv=0.1270 pf=0.92 kW=6.595434 Daily=RES1_25
New Load.BT_325399704_325837595_1 Bus1=node_422788639.1.4 Phases=1 Model=8 zipv=(0.5,0,0.5,1,0,0,0) kv=0.1200 pf=0.92 kW=0.780822 Daily=RES1_25
New Load.BT_325399704_325837595_2 Bus1=node_422788639.2.4 Phases=1 Model=8 zipv=(0.5,0,0.5,1,0,0,0) kv=0.1200 pf=0.92 kW=0.780822 Daily=RES1_25
New Load.BT_325400504_719811808_1 Bus1=node_411441658.1.4 Phases=1 Model=8 zipv=(0.5,0,0.5,1,0,0,0) kv=0.1270 pf=0.92 kW=4.952968 Daily=RES1_25
New Load.BT_325400504_719811808_2 Bus1=node_411441658.2.4 Phases=1 Model=8 zipv=(0.5,0,0.5,1,0,0,0) kv=0.1270 pf=0.92 kW=4.952968 Daily=RES1_25
New Load.BT_325400504_719811808_3 Bus1=node_411441658.3.4 Phases=1 Model=8 zipv=(0.5,0,0.5,1,0,0,0) kv=0.1270 pf=0.92 kW=4.952968 Daily=RES1_25
New Load.BT_324762104_325860744_1 Bus1=node_409160693.1.4 Phases=1 Model=8 zipv=(0.5,0,0.5,1,0,0,0) kv=0.1270 pf=0.92 kW=2.967123 Daily=RES1_25
New Load.BT_324762104_325860744_2 Bus1=node_409160693.2.4 Phases=1 Model=8 zipv=(0.5,0,0.5,1,0,0,0) kv=0.1270 pf=0.92 kW=2.967123 Daily=RES1_25
New Load.BT_324762104_325860744_3 Bus1=node_409160693.3.4 Phases=1 Model=8 zipv=(0.5,0,0.5,1,0,0,0) kv=0.1270 pf=0.92 kW=2.967123 Daily=RES1_25
New Load.BT_325047609_325839552_1 Bus1=node_412112592.1.4 Phases=1 Model=8 zipv=(0.5,0,0.5,1,0,0,0) kv=0.1200 pf=0.92 kW=0.521233 Daily=RES1_25
New Load.BT_325047609_325839552_2 Bus1=node_412112592.2.4 Phases=1 Model=8 zipv=(0.5,0,0.5,1,0,0,0) kv=0.1200 pf=0.92 kW=0.521233 Daily=RES1_25
New Load.BT_325173802_325839912_1 Bus1=node_408469420.1.4 Phases=1 Model=8 zipv=(0.5,0,0.5,1,0,0,0) kv=0.1270 pf=0.92 kW=1.631963 Daily=RES1_25
...

! --- cargas de media tensao (UCMT_tab) ---
New Load.MT_node_445271841_1 Bus1=node_445271841.1.2.3 Phases=3 Conn=wye Model=8 zipv=(0.5,0,0.5,1,0,0,0) kv=13.8000 pf=0.92 kW=207.8644 Daily=MT4_1
New Load.MT_node_127199848_3 Bus1=node_127199848.1.2.3 Phases=3 Conn=wye Model=8 zipv=(0.5,0,0.5,1,0,0,0) kv=13.8000 pf=0.92 kW=50.4918 Daily=MT1_1
New Load.MT_node_121996003_4 Bus1=node_121996003.1.2.3 Phases=3 Conn=wye Model=8 zipv=(0.5,0,0.5,1,0,0,0) kv=13.8000 pf=0.92 kW=30.0479 Daily=MT1_1
New Load.MT_node_123981776_5 Bus1=node_123981776.1.2.3 Phases=3 Conn=wye Model=8 zipv=(0.5,0,0.5,1,0,0,0) kv=13.8000 pf=0.92 kW=219.5890 Daily=MT1_1
